64

C         -1.56523      -29.00403        7.57247
O         -1.36502      -27.59893        7.47997
C         -1.68817      -27.03058        6.27864
C         -1.03158      -25.82876        6.00151
C         -1.24636      -25.16397        4.79265
C         -2.14990      -25.69598        3.86819
C         -2.83803      -26.87834        4.15112
C         -2.60470      -27.54544        5.35901
S         -2.30231      -24.94004        2.27024
O         -0.95699      -24.87383        1.73223
O         -3.35533      -25.59731        1.53120
N         -2.70118      -23.36170        2.60084
C         -3.99017      -22.83212        2.65420
O         -4.97710      -23.55171        2.75195
N         -4.07875      -21.43953        2.58926
C         -5.42218      -20.87343        2.53605
C         -5.51826      -19.40659        2.10621
C         -4.21361      -18.80638        1.54329
C         -3.17716      -19.07253        2.64953
C         -2.96232      -20.55772        2.92559
N         -3.80947      -19.28957        0.18874
C         -2.57380      -18.61784       -0.27127
C         -2.12156      -19.07635       -1.65928
C         -3.21325      -18.95450       -2.72131
C         -4.50738      -19.56940       -2.19993
C         -4.87605      -19.04880       -0.80789
O         -3.40756      -17.56562       -3.03431
C         -3.81689      -17.21810       -4.29537
C         -4.11162      -18.09207       -5.34280
C         -4.50502      -17.59616       -6.59252
C         -4.62097      -16.22112       -6.80332
Cl        -5.11203      -15.68457       -8.36973
C         -4.34249      -15.34004       -5.75563
Cl        -4.47531      -13.62554       -5.93197
C         -3.94100      -15.84087       -4.51064
H         -1.10489      -29.34601        8.50481
H         -1.07625      -29.53346        6.74704
H         -2.63094      -29.24842        7.62139
H         -0.32229      -25.43229        6.72406
H         -0.68761      -24.25928        4.57096
H         -3.53475      -27.30272        3.43165
H         -3.14931      -28.46389        5.55243
H         -1.94129      -22.76165        2.31871
H         -5.86285      -20.98775        3.53485
H         -6.03081      -21.48421        1.85862
H         -6.37315      -19.26381        1.43737
H         -5.79400      -18.82182        2.99656
H         -4.35881      -17.71849        1.48117
H         -2.21610      -18.58634        2.45185
H         -3.53168      -18.59917        3.57649
H         -2.07336      -20.87502        2.37364
H         -2.74249      -20.70553        3.99042
H         -1.74609      -18.85260        0.40612
H         -2.69991      -17.52750       -0.26651
H         -1.24799      -18.48340       -1.95699
H         -1.79906      -20.12378       -1.59888
H         -2.84639      -19.49990       -3.59703
H         -5.33737      -19.34963       -2.88143
H         -4.40070      -20.66040       -2.15928
H         -5.12018      -17.97960       -0.86122
H         -5.78958      -19.57906       -0.52375
H         -4.05238      -19.16989       -5.23344
H         -4.72127      -18.29390       -7.39890
H         -3.72103      -15.15358       -3.69715
